# Topology cds
data_cds
_symmetry_space_group_name_H-M    P1
_symmetry_Int_Tables_number       1
_symmetry_cell_setting            triclinic
loop_
_symmetry_equiv_pos_as_xyz
'x, y, z'
_cell_length_a     1.000
_cell_length_b     1.000
_cell_length_c     2.000
_cell_angle_alpha  90.000
_cell_angle_beta   90.000
_cell_angle_gamma  90.000
loop_
_atom_site_label
_atom_site_type_symbol
_atom_site_fract_x
_atom_site_fract_y
_atom_site_fract_z
_atom_type_partial_charge
N0 N 0.00000 0.00000 0.00000 0.0
N1 N 0.00000 0.00000 0.50000 0.0
loop_
_geom_bond_atom_site_label_1
_geom_bond_atom_site_label_2
_geom_bond_distance
_geom_bond_site_symmetry_2
_ccdc_geom_bond_type
N0 N1 1.000 1_554 S
N0 N0 1.000 1_455 S
N0 N1 1.000 . S
N0 N0 1.000 1_655 S
N1 N1 1.000 1_565 S
N1 N1 1.000 1_545 S
